[Format]      =  4.0
[Frequency]   =  44000
[Precision]   =  1e-008
[MinAngle]    =  30
[DoSmartMesh] =  1
[Depth]       =  1
[LengthUnits] =  centimeters
[ProblemType] =  axisymmetric
[Coordinates] =  cartesian
[ACSolver]    =  0
[PrevType]    =  0
[PrevSoln]    =  ""
[Comment]     =  "Add comments here."
[PointProps]   = 0
[BdryProps]   = 0
[BlockProps]  = 5
  <BeginBlock>
    <BlockName> = "Air"
    <Mu_x> = 1
    <Mu_y> = 1
    <H_c> = 0
    <H_cAngle> = 0
    <J_re> = 0
    <J_im> = 0
    <Sigma> = 0
    <d_lam> = 0
    <Phi_h> = 0
    <Phi_hx> = 0
    <Phi_hy> = 0
    <LamType> = 0
    <LamFill> = 1
    <NStrands> = 0
    <WireD> = 0
    <BHPoints> = 0
  <EndBlock>
  <BeginBlock>
    <BlockName> = "18 AWG"
    <Mu_x> = 1
    <Mu_y> = 1
    <H_c> = 0
    <H_cAngle> = 0
    <J_re> = 0
    <J_im> = 0
    <Sigma> = 58
    <d_lam> = 0
    <Phi_h> = 0
    <Phi_hx> = 0
    <Phi_hy> = 0
    <LamType> = 3
    <LamFill> = 1
    <NStrands> = 1
    <WireD> = 1.0239652968433499
    <BHPoints> = 0
  <EndBlock>
  <BeginBlock>
    <BlockName> = "Aluminium 5052"
    <Mu_x> = 1
    <Mu_y> = 1
    <H_c> = 0
    <H_cAngle> = 0
    <J_re> = 0
    <J_im> = 0
    <Sigma> = 20.039999999999999
    <d_lam> = 0
    <Phi_h> = 0
    <Phi_hx> = 0
    <Phi_hy> = 0
    <LamType> = 0
    <LamFill> = 1
    <NStrands> = 0
    <WireD> = 0
    <BHPoints> = 0
  <EndBlock>
  <BeginBlock>
    <BlockName> = "Copper"
    <Mu_x> = 1
    <Mu_y> = 1
    <H_c> = 0
    <H_cAngle> = 0
    <J_re> = 0
    <J_im> = 0
    <Sigma> = 58
    <d_lam> = 0
    <Phi_h> = 0
    <Phi_hx> = 0
    <Phi_hy> = 0
    <LamType> = 0
    <LamFill> = 1
    <NStrands> = 0
    <WireD> = 0
    <BHPoints> = 0
  <EndBlock>
  <BeginBlock>
    <BlockName> = "Aluminum, 6061-T6"
    <Mu_x> = 1
    <Mu_y> = 1
    <H_c> = 0
    <H_cAngle> = 0
    <J_re> = 0
    <J_im> = 0
    <Sigma> = 24.59
    <d_lam> = 0
    <Phi_h> = 0
    <Phi_hx> = 0
    <Phi_hy> = 0
    <LamType> = 0
    <LamFill> = 1
    <NStrands> = 0
    <WireD> = 0
    <BHPoints> = 0
  <EndBlock>
[CircuitProps]  = 1
  <BeginCircuit>
    <CircuitName> = "coil"
    <TotalAmps_re> = 0.59999999999999998
    <TotalAmps_im> = 0
    <CircuitType> = 1
  <EndCircuit>
[NumPoints] = 41
26	28	0	0
0	28	0	0
0	-28	0	0
26	-28	0	0
0	0	0	0
4.25	28	0	0
4.25	-28	0	0
5.5	7.9000000000000004	0	0
5.5	4.9000000000000004	0	0
5.4000000000000004	7.9000000000000004	0	0
5.4000000000000004	4.9000000000000004	0	0
5.5	-7.9000000000000004	0	0
5.5	-4.9000000000000004	0	0
5.4000000000000004	-7.9000000000000004	0	0
5.4000000000000004	-4.9000000000000004	0	0
4.6349999999999998	17.600000000000001	0	0
6.9000000000000004	17.600000000000001	0	0
6.9000000000000004	18.900000000000002	0	0
5.2249999999999996	18.900000000000002	0	0
4.6349999999999998	18.290000000000003	0	0
4.6349999999999998	19.200000000000003	0	0
6.9000000000000004	19.200000000000003	0	0
6.9000000000000004	22.200000000000003	0	0
4.25	22.200000000000003	0	0
4.25	20.047000000000001	0	0
4.6349999999999998	20.047000000000001	0	0
4.6349999999999998	-17.600000000000001	0	0
6.9000000000000004	-17.600000000000001	0	0
6.9000000000000004	-18.900000000000002	0	0
5.2249999999999996	-18.900000000000002	0	0
4.6349999999999998	-18.290000000000003	0	0
4.6349999999999998	-19.200000000000003	0	0
6.9000000000000004	-19.200000000000003	0	0
6.9000000000000004	-22.200000000000003	0	0
4.25	-22.200000000000003	0	0
4.25	-20.047000000000001	0	0
4.6349999999999998	-20.047000000000001	0	0
5.0999999999999996	0.10000000000000001	0	0
5.0999999999999996	-0.10000000000000001	0	0
6.0250000000000004	0.10000000000000001	0	0
6.0250000000000004	-0.10000000000000001	0	0
[NumSegments] = 41
0	5	-1	0	0	0
0	3	-1	0	0	0
2	6	-1	0	0	0
2	4	-1	0	0	0
4	1	-1	0	0	0
5	1	-1	0	0	0
6	3	-1	0	0	0
7	8	-1	0	0	0
7	9	-1	0	0	0
9	10	-1	0	0	0
10	8	-1	0	0	0
11	12	-1	0	0	0
11	13	-1	0	0	0
13	14	-1	0	0	0
14	12	-1	0	0	0
15	16	-1	0	0	0
16	17	-1	0	0	0
17	18	-1	0	0	0
18	19	-1	0	0	0
19	15	-1	0	0	0
20	21	-1	0	0	0
21	22	-1	0	0	0
22	23	-1	0	0	0
23	24	-1	0	0	0
24	25	-1	0	0	0
25	20	-1	0	0	0
26	27	-1	0	0	0
27	28	-1	0	0	0
28	29	-1	0	0	0
29	30	-1	0	0	0
30	26	-1	0	0	0
31	32	-1	0	0	0
32	33	-1	0	0	0
33	34	-1	0	0	0
34	35	-1	0	0	0
35	36	-1	0	0	0
36	31	-1	0	0	0
37	39	-1	0	0	0
37	38	-1	0	0	0
40	39	-1	0	0	0
40	38	-1	0	0	0
[NumArcSegments] = 0
[NumHoles] = 0
[NumBlockLabels] = 8
5	17.610000000000003	5	0.050000000000000003	0	0	0	1	0
5	19.210000000000004	5	0.050000000000000003	0	0	0	1	0
5	-17.610000000000003	5	0.050000000000000003	0	0	0	1	0
5	-19.210000000000004	5	0.050000000000000003	0	0	0	1	0
5.101	0	4	0.050000000000000003	0	0	0	1	0
5.4500000000000002	6	2	0.10000000000000001	1	0	0	30	0
5.4500000000000002	-6	2	0.10000000000000001	0	0	0	1	0
2	2	1	0.5	0	0	0	1	0
